[TITLE]
Export input file via plugin ExportEpanetInpFiles. 

[JUNCTIONS]
;ID              	Elev        	Demand      	Pattern         
 J-240           	1071.159999 	0.067908863 	Y               	;
 J-132           	1077.92     	0.067908863 	Y               	;
 J-131           	1076.36     	0.067908863 	Y               	;
 J-57            	1109.439999 	0.067908863 	Y               	;
 J-728           	1072.940001 	0.067908863 	Y               	;
 J-39            	1098.259999 	0.067908863 	Y               	;
 J-695           	1073.690001 	0.067908863 	Y               	;
 J-654           	1081.67     	0.067908863 	Y               	;
 J-655           	1088.519999 	0.067908863 	Y               	;
 J-696           	1077.930001 	0.067908863 	Y               	;
 J-691           	1100.730001 	0.067908863 	Y               	;
 J-28            	1102.389999 	0.067908863 	Y               	;
 J-721           	1074.209999 	0.067908863 	Y               	;
 J-545           	1095.060001 	0.067908863 	Y               	;
 J-547           	1087.500001 	0.067908863 	Y               	;
 J-613           	1103.96     	0.067908863 	Y               	;
 J-17            	1078.279999 	0.067908863 	Y               	;
 J-471           	1101.47     	0.067908863 	Y               	;
 J-472           	1104.749999 	0.067908863 	Y               	;
 J-477           	1086.09     	0.067908863 	Y               	;
 J-478           	1085.440001 	0.067908863 	Y               	;
 J-24            	1085.22     	0.067908863 	Y               	;
 J-365           	1100.740001 	0.067908863 	Y               	;
 J-366           	1102.699999 	0.067908863 	Y               	;
 J-328           	1060.17     	0.067908863 	Y               	;
 J-218           	1093.4      	0.067908863 	Y               	;
 J-256           	1108.64     	0.067908863 	Y               	;
 J-219           	1094.310001 	0.067908863 	Y               	;
 J-98            	1062.74     	0           	                	;
 J-94            	1109.420001 	0.067908863 	Y               	;
 J-323           	1090.78     	0.067908863 	Y               	;
 J-325           	1103.180001 	0.067908863 	Y               	;
 J-322           	1094.28     	0.067908863 	Y               	;
 J-299           	1099.22     	0.067908863 	Y               	;
 J-180           	1109.64     	0.067908863 	Y               	;
 J-181           	1108.83     	0.067908863 	Y               	;
 J-109           	1107.14     	0.067908863 	Y               	;
 J-187           	1075.579999 	0.067908863 	Y               	;
 J-186           	1075.500001 	0.067908863 	Y               	;
 J-251           	1093.41     	0.067908863 	Y               	;
 J-216           	1064.880001 	0           	                	;
 J-217           	1067.080001 	0           	                	;
 J-250           	1091.259999 	0.067908863 	Y               	;
 J-101           	1107.499999 	0.067908863 	Y               	;
 J-102           	1106.910001 	0.067908863 	Y               	;
 J-106           	1090.069999 	0.067908863 	Y               	;
 J-143           	1110.189999 	0.067908863 	Y               	;
 J-142           	1077.000001 	0.067908863 	Y               	;
 J-105           	1088.91     	0.067908863 	Y               	;
 J-58            	1108.929999 	0.067908863 	Y               	;
 J-61            	1078.85     	0.067908863 	Y               	;
 J-54            	1112.160001 	0.067908863 	Y               	;
 J-666           	1092.699999 	0.067908863 	Y               	;
 J-29            	1102.059999 	0.067908863 	Y               	;
 J-559           	1100.120001 	0.067908863 	Y               	;
 J-595           	1110.800001 	0.067908863 	Y               	;
 J-624           	1080.209999 	0.067908863 	Y               	;
 J-662           	1087.190001 	0.067908863 	Y               	;
 J-25            	1084.579999 	0.067908863 	Y               	;
 J-511           	1100.6      	0.067908863 	Y               	;
 J-512           	1104.790001 	0.067908863 	Y               	;
 J-517           	1077.85     	0.067908863 	Y               	;
 J-518           	1078.440001 	0.067908863 	Y               	;
 J-14            	1112.790001 	0.067908863 	Y               	;
 J-407           	1067.219999 	0.067908863 	Y               	;
 J-408           	1067.940001 	0.067908863 	Y               	;
 J-402           	1082.329999 	0.067908863 	Y               	;
 J-404           	1078.810001 	0.067908863 	Y               	;
 J-406           	1073.519999 	0.067908863 	Y               	;
 J-409           	1114.230001 	0.067908863 	Y               	;
 J-266           	1104.550001 	0.067908863 	Y               	;
 J-267           	1103.52     	0.067908863 	Y               	;
 J-268           	1090.430001 	0.067908863 	Y               	;
 J-265           	1082.389999 	0.067908863 	Y               	;
 J-337           	1086.550001 	0.067908863 	Y               	;
 J-194           	1079.92     	0.067908863 	Y               	;
 J-195           	1080.269999 	0.067908863 	Y               	;
 J-199           	1091.209999 	0.067908863 	Y               	;
 J-191           	1086.85     	0.067908863 	Y               	;
 J-220           	1085.29     	0.067908863 	Y               	;
 J-221           	1083.899999 	0.067908863 	Y               	;
 J-77            	1112.489999 	0.067908863 	Y               	;
 J-110           	1052.62     	0           	                	;
 J-111           	1051.31     	0           	                	;
 J-116           	1096.699999 	0.067908863 	Y               	;
 J-117           	1099.71     	0.067908863 	Y               	;
 J-190           	1085.98     	0.067908863 	Y               	;
 J-150           	1114.52     	0.067908863 	Y               	;
 J-55            	1112.14     	0.067908863 	Y               	;
 J-742           	1076.810001 	0.067908863 	Y               	;
 J-631           	1088.35     	0.067908863 	Y               	;
 J-674           	1107.999999 	0.067908863 	Y               	;
 J-495           	1091.550001 	0.067908863 	Y               	;
 J-496           	1069.74     	0.067908863 	Y               	;
 J-700           	1077.29     	0.067908863 	Y               	;
 J-567           	1053.779999 	0           	                	;
 J-568           	1051.770001 	0           	                	;
 J-560           	1096.569999 	0.067908863 	Y               	;
 J-387           	1084.959999 	0.067908863 	Y               	;
 J-388           	1089.699999 	0.067908863 	Y               	;
 J-630           	1086.370001 	0.067908863 	Y               	;
 J-15            	1112.78     	0.067908863 	Y               	;
 J-451           	1103.689999 	0.067908863 	Y               	;
 J-419           	1111.910001 	0.067908863 	Y               	;
 J-494           	1089.85     	0.067908863 	Y               	;
 J-277           	1089.180001 	0.067908863 	Y               	;
 J-278           	1086.500001 	0.067908863 	Y               	;
 J-342           	1093.54     	0.067908863 	Y               	;
 J-382           	1106.189999 	0.067908863 	Y               	;
 J-168           	1100.1      	0.067908863 	Y               	;
 J-304           	1061.140001 	0           	                	;
 J-230           	1105.03     	0.067908863 	Y               	;
 J-235           	1085.47     	0.067908863 	Y               	;
 J-274           	1098.120001 	0.067908863 	Y               	;
 J-239           	1071.74     	0.067908863 	Y               	;
 J-236           	1085.089999 	0.067908863 	Y               	;
 J-273           	1097.490001 	0.067908863 	Y               	;
 J-300           	1097.34     	0.067908863 	Y               	;
 J-78            	1112.369999 	0.067908863 	Y               	;
 J-121           	1114.110001 	0.067908863 	Y               	;
 J-128           	1086.09     	0.067908863 	Y               	;
 J-164           	1074.74     	0           	                	;
 J-161           	1113.46     	0.067908863 	Y               	;
 J-74            	1086.120001 	0.067908863 	Y               	;
 J-122           	1113.850001 	0.067908863 	Y               	;
 J-56            	1102.189999 	0.067908863 	Y               	;
 J-718           	1094.370001 	0.067908863 	Y               	;
 J-38            	1100.249999 	0.067908863 	Y               	;
 J-648           	1078.279999 	0.067908863 	Y               	;
 J-649           	1102.389999 	0.067908863 	Y               	;
 J-41            	1085.240001 	0.067908863 	Y               	;
 J-534           	1075.11     	0.067908863 	Y               	;
 J-572           	1067.570001 	0.067908863 	Y               	;
 J-642           	1057.510001 	0           	                	;
 J-600           	1075.98     	0.067908863 	Y               	;
 J-16            	1079.130001 	0.067908863 	Y               	;
 J-391           	1112.569999 	0.067908863 	Y               	;
 J-393           	1085.699999 	0.067908863 	Y               	;
 J-394           	1085.85     	0.067908863 	Y               	;
 J-353           	1094.269999 	0.067908863 	Y               	;
 J-390           	1113.069999 	0.067908863 	Y               	;
 J-421           	1098.96     	0.067908863 	Y               	;
 J-97            	1061.270001 	0           	                	;
 J-354           	1094.66     	0.067908863 	Y               	;
 J-281           	1093.610001 	0.067908863 	Y               	;
 J-245           	1086.149999 	0.067908863 	Y               	;
 J-244           	1086.54     	0.067908863 	Y               	;
 J-93            	1109.350001 	0.067908863 	Y               	;
 J-312           	1070.92     	0.067908863 	Y               	;
 J-350           	1081.54     	0.067908863 	Y               	;
 J-135           	1062.25     	0.067908863 	Y               	;
 J-136           	1062.209999 	0.067908863 	Y               	;
 J-172           	1086.73     	0.067908863 	Y               	;
 J-178           	1090.889999 	0.067908863 	Y               	;
 J-177           	1090.129999 	0.067908863 	Y               	;
 J-137           	1061.68     	0.067908863 	Y               	;
 J-138           	1059.5      	0.067908863 	Y               	;
 J-171           	1087.060001 	0.067908863 	Y               	;
 J-200           	1089.940001 	0.067908863 	Y               	;

[RESERVOIRS]
;ID              	Head        	Pattern         
 R-1             	1135        	                	;

[TANKS]
;ID              	Elevation   	InitLevel   	MinLevel    	MaxLevel    	Diameter    	MinVol      	VolCurve

[PIPES]
;ID              	Node1           	Node2           	Length      	Diameter    	Roughness   	MinorLoss   	Status
 P-100           	J-106           	J-268           	35.32       	125         	130         	0           	OPEN  	;
 P-101           	J-268           	J-696           	64.641      	100         	130         	0           	OPEN  	;
 P-162           	J-219           	J-511           	56.702      	200         	130         	0           	OPEN  	;
 P-163           	J-511           	J-512           	37.802      	200         	130         	0           	OPEN  	;
 P-164           	J-512           	J-595           	47.001      	200         	130         	0           	OPEN  	;
 P-165           	J-221           	J-194           	57.896      	100         	130         	0           	OPEN  	;
 P-166           	J-496           	J-337           	112.325     	100         	130         	0           	OPEN  	;
 P-1667          	J-28            	J-56            	0.905       	100         	130         	0           	OPEN  	;
 P-1668          	J-56            	J-29            	4.018       	100         	130         	0           	OPEN  	;
 P-167           	J-387           	J-654           	78.324      	125         	130         	0           	OPEN  	;
 P-168           	J-649           	J-560           	62.146      	125         	130         	0           	OPEN  	;
 P-169           	J-387           	J-388           	26.633      	100         	130         	0           	OPEN  	;
 P-170           	J-388           	J-471           	83.581      	100         	130         	0           	OPEN  	;
 P-171           	J-471           	J-472           	33.387      	200         	130         	0           	OPEN  	;
 P-172           	J-560           	J-273           	43.506      	200         	130         	0           	OPEN  	;
 P-173           	J-471           	J-366           	44.845      	125         	130         	0           	OPEN  	;
 P-174           	J-655           	J-388           	79.311      	100         	130         	0           	OPEN  	;
 P-175           	J-654           	J-655           	54.127      	100         	130         	0           	OPEN  	;
 P-176           	J-655           	J-273           	64.857      	100         	130         	0           	OPEN  	;
 P-177           	J-494           	J-495           	35.632      	125         	130         	0           	OPEN  	;
 P-178           	J-495           	J-353           	49.601      	125         	130         	0           	OPEN  	;
 P-179           	J-353           	J-354           	23.984      	125         	130         	0           	OPEN  	;
 P-180           	J-624           	J-518           	50.289      	200         	130         	0           	OPEN  	;
 P-200           	J-57            	J-143           	10.132      	200         	130         	0           	OPEN  	;
 P-201           	J-171           	J-402           	28.239      	300         	130         	0           	OPEN  	;
 P-202           	J-131           	J-132           	9.607       	300         	130         	0           	OPEN  	;
 P-203           	J-135           	J-136           	9.818       	100         	130         	0           	OPEN  	;
 P-204           	J-137           	J-328           	22.422      	100         	130         	0           	OPEN  	;
 P-361           	J-55            	J-101           	57.204      	100         	130         	0           	OPEN  	;
 P-362           	J-101           	J-102           	8.728       	100         	130         	0           	OPEN  	;
 P-363           	J-93            	J-94            	8.479       	100         	130         	0           	OPEN  	;
 P-364           	J-94            	J-674           	83.72       	100         	130         	0           	OPEN  	;
 P-365           	J-57            	J-256           	17.149      	100         	130         	0           	OPEN  	;
 P-366           	J-256           	J-101           	59.435      	100         	130         	0           	OPEN  	;
 P-367           	J-57            	J-58            	6.628       	200         	130         	0           	OPEN  	;
 P-368           	J-58            	J-472           	43.997      	200         	130         	0           	OPEN  	;
 P-369           	J-419           	J-77            	29.223      	200         	130         	0           	OPEN  	;
 P-370           	J-595           	J-390           	60.381      	200         	130         	0           	OPEN  	;
 P-371           	J-106           	J-365           	86.657      	125         	130         	0           	OPEN  	;
 P-372           	J-365           	J-366           	25.246      	125         	130         	0           	OPEN  	;
 P-373           	J-266           	J-267           	18.143      	125         	130         	0           	OPEN  	;
 P-374           	J-267           	J-325           	22.057      	125         	130         	0           	OPEN  	;
 P-375           	J-251           	J-199           	24.591      	100         	130         	0           	OPEN  	;
 P-376           	J-718           	J-281           	71.466      	125         	130         	0           	OPEN  	;
 P-377           	J-171           	J-172           	11.705      	300         	130         	0           	OPEN  	;
 P-378           	J-244           	J-245           	16.93       	200         	130         	0           	OPEN  	;
 P-379           	J-245           	J-662           	55.528      	200         	130         	0           	OPEN  	;
 P-380           	J-742           	J-239           	128.071     	125         	130         	0           	OPEN  	;
 P-381           	J-512           	J-451           	40.671      	100         	130         	0           	OPEN  	;
 P-382           	J-244           	J-250           	36.646      	250         	130         	0           	OPEN  	;
 P-383           	J-250           	J-251           	16.98       	250         	130         	0           	OPEN  	;
 P-384           	J-268           	J-177           	18.192      	125         	130         	0           	OPEN  	;
 P-385           	J-177           	J-178           	12.138      	125         	130         	0           	OPEN  	;
 P-386           	J-178           	J-277           	33.446      	125         	130         	0           	OPEN  	;
 P-387           	J-266           	J-691           	61.974      	100         	130         	0           	OPEN  	;
 P-388           	J-691           	J-354           	64.189      	100         	130         	0           	OPEN  	;
 P-452           	J-595           	J-180           	82.326      	100         	130         	0           	OPEN  	;
 P-453           	J-366           	J-322           	71.143      	100         	130         	0           	OPEN  	;
 P-454           	J-194           	J-195           	13.105      	125         	130         	0           	OPEN  	;
 P-455           	J-195           	J-654           	58.766      	125         	130         	0           	OPEN  	;
 P-456           	J-337           	J-477           	36.874      	125         	130         	0           	OPEN  	;
 P-457           	J-221           	J-265           	18.12       	200         	130         	0           	OPEN  	;
 P-458           	J-265           	J-404           	28.368      	200         	130         	0           	OPEN  	;
 P-459           	J-560           	J-220           	120.518     	200         	130         	0           	OPEN  	;
 P-460           	J-220           	J-221           	14.755      	200         	130         	0           	OPEN  	;
 P-461           	J-649           	J-109           	53.071      	125         	130         	0           	OPEN  	;
 P-462           	J-109           	J-102           	8.955       	125         	130         	0           	OPEN  	;
 P-463           	J-273           	J-274           	18.627      	200         	130         	0           	OPEN  	;
 P-464           	J-274           	J-471           	66.71       	200         	130         	0           	OPEN  	;
 P-465           	J-74            	J-190           	70.046      	125         	130         	0           	OPEN  	;
 P-466           	J-337           	J-128           	36.461      	125         	130         	0           	OPEN  	;
 P-467           	J-128           	J-74            	9.563       	125         	130         	0           	OPEN  	;
 P-468           	J-74            	J-24            	7.823       	100         	130         	0           	OPEN  	;
 P-469           	J-24            	J-25            	4.771       	100         	130         	0           	OPEN  	;
 P-470           	J-494           	J-545           	41.294      	100         	130         	0           	OPEN  	;
 P-471           	J-265           	J-350           	23.648      	125         	130         	0           	OPEN  	;
 P-472           	J-350           	J-494           	110.454     	125         	130         	0           	OPEN  	;
 P-473           	J-404           	J-517           	131.919     	200         	130         	0           	OPEN  	;
 P-474           	J-517           	J-518           	38.794      	200         	130         	0           	OPEN  	;
 P-475           	J-624           	J-630           	72.949      	200         	130         	0           	OPEN  	;
 P-476           	J-630           	J-631           	50.839      	200         	130         	0           	OPEN  	;
 P-477           	J-472           	J-613           	48.837      	100         	130         	0           	OPEN  	;
 P-478           	J-613           	J-649           	54.14       	100         	130         	0           	OPEN  	;
 P-494           	J-56            	J-38            	6.49        	100         	130         	0           	OPEN  	;
 P-495           	J-168           	J-117           	11.469      	100         	130         	0           	OPEN  	;
 P-496           	J-117           	J-421           	29.386      	100         	130         	0           	OPEN  	;
 P-497           	J-14            	J-161           	10.963      	100         	130         	0           	OPEN  	;
 P-498           	J-121           	J-122           	9.409       	100         	130         	0           	OPEN  	;
 P-499           	J-122           	J-409           	28.845      	100         	130         	0           	OPEN  	;
 P-500           	J-16            	J-17            	4.444       	100         	130         	0           	OPEN  	;
 P-501           	J-17            	J-572           	45.309      	100         	130         	0           	OPEN  	;
 P-502           	J-24            	J-41            	5.646       	100         	130         	0           	OPEN  	;
 P-503           	J-496           	J-135           	40.551      	100         	130         	0           	OPEN  	;
 P-504           	J-496           	J-407           	35.736      	100         	130         	0           	OPEN  	;
 P-505           	J-407           	J-408           	28.717      	100         	130         	0           	OPEN  	;
 P-51            	J-325           	J-718           	104.019     	100         	130         	0           	OPEN  	;
 P-563           	J-77            	J-78            	7.927       	200         	130         	0           	OPEN  	;
 P-564           	J-78            	J-55            	15.869      	200         	130         	0           	OPEN  	;
 P-565           	J-390           	J-391           	26.707      	200         	130         	0           	OPEN  	;
 P-566           	J-199           	J-200           	13.351      	100         	130         	0           	OPEN  	;
 P-567           	J-281           	J-218           	19.465      	125         	130         	0           	OPEN  	;
 P-568           	J-218           	J-219           	14.557      	125         	130         	0           	OPEN  	;
 P-569           	J-172           	J-235           	17.995      	300         	130         	0           	OPEN  	;
 P-570           	J-235           	J-236           	16.121      	300         	130         	0           	OPEN  	;
 P-571           	J-239           	J-240           	16.635      	125         	130         	0           	OPEN  	;
 P-572           	J-451           	J-299           	31.495      	100         	130         	0           	OPEN  	;
 P-573           	J-277           	J-278           	18.907      	125         	130         	0           	OPEN  	;
 P-574           	J-278           	J-742           	114.14      	125         	130         	0           	OPEN  	;
 P-615           	J-180           	J-181           	12.439      	100         	130         	0           	OPEN  	;
 P-616           	J-322           	J-323           	21.937      	100         	130         	0           	OPEN  	;
 P-617           	J-323           	J-337           	22.742      	100         	130         	0           	OPEN  	;
 P-618           	J-477           	J-478           	34.422      	125         	130         	0           	OPEN  	;
 P-619           	J-478           	J-387           	50.862      	125         	130         	0           	OPEN  	;
 P-620           	J-190           	J-191           	13.068      	125         	130         	0           	OPEN  	;
 P-621           	J-545           	J-559           	43.28       	100         	130         	0           	OPEN  	;
 P-622           	J-559           	J-382           	88.981      	100         	130         	0           	OPEN  	;
 P-635           	J-38            	J-39            	5.447       	100         	130         	0           	OPEN  	;
 P-636           	J-161           	J-150           	69.173      	100         	130         	0           	OPEN  	;
 P-637           	J-150           	J-122           	10.484      	100         	130         	0           	OPEN  	;
 P-638           	J-41            	J-61            	38.464      	100         	130         	0           	OPEN  	;
 P-639           	J-61            	J-17            	6.759       	100         	130         	0           	OPEN  	;
 P-640           	J-135           	J-137           	17.401      	100         	130         	0           	OPEN  	;
 P-641           	J-137           	J-138           	9.822       	100         	130         	0           	OPEN  	;
 P-677           	J-391           	J-54            	35.204      	200         	130         	0           	OPEN  	;
 P-678           	J-54            	J-55            	6.464       	200         	130         	0           	OPEN  	;
 P-679           	J-200           	J-393           	214.943     	100         	130         	0           	OPEN  	;
 P-680           	J-240           	J-312           	21.47       	125         	130         	0           	OPEN  	;
 P-681           	J-299           	J-300           	20.508      	100         	130         	0           	OPEN  	;
 P-682           	J-300           	J-251           	46.767      	100         	130         	0           	OPEN  	;
 P-700           	J-181           	J-230           	20.955      	100         	130         	0           	OPEN  	;
 P-701           	J-191           	J-105           	14.822      	125         	130         	0           	OPEN  	;
 P-702           	J-105           	J-106           	8.868       	125         	130         	0           	OPEN  	;
 P-705           	J-39            	J-116           	43.553      	100         	130         	0           	OPEN  	;
 P-706           	J-116           	J-117           	9.1         	100         	130         	0           	OPEN  	;
 P-720           	J-393           	J-394           	27.55       	100         	130         	0           	OPEN  	;
 P-721           	J-312           	J-406           	28.683      	125         	130         	0           	OPEN  	;
 P-725           	J-230           	J-28            	15.562      	100         	130         	0           	OPEN  	;
 P-744           	J-394           	J-547           	41.345      	100         	130         	0           	OPEN  	;
 P-745           	J-406           	J-695           	64.401      	125         	130         	0           	OPEN  	;
 P-756           	J-547           	J-666           	183.355     	100         	130         	0           	OPEN  	;
 P-757           	J-666           	J-342           	56.428      	100         	130         	0           	OPEN  	;
 P-758           	J-695           	J-721           	122.244     	125         	130         	0           	OPEN  	;
 P-768           	J-721           	J-600           	72.615      	125         	130         	0           	OPEN  	;
 P-775           	J-600           	J-186           	47.253      	125         	130         	0           	OPEN  	;
 P-776           	J-186           	J-187           	12.666      	125         	130         	0           	OPEN  	;
 P-777           	J-187           	J-131           	35.826      	125         	130         	0           	OPEN  	;
 P-778           	J-194           	J-728           	82.315      	125         	130         	0           	OPEN  	;
 P-779           	J-404           	J-534           	40.008      	100         	130         	0           	OPEN  	;
 P-780           	J-568           	J-304           	161.41      	300         	130         	0           	OPEN  	;
 P-781           	J-662           	J-700           	65.762      	300         	130         	0           	OPEN  	;
 P-782           	J-700           	J-142           	113.703     	300         	130         	0           	OPEN  	;
 P-797           	J-131           	J-142           	10.124      	300         	130         	0           	OPEN  	;
 P-798           	J-304           	J-216           	20.632      	300         	130         	0           	OPEN  	;
 P-799           	J-97            	J-642           	184.244     	300         	130         	0           	OPEN  	;
 P-801           	J-97            	J-110           	35.24       	500         	130         	0           	OPEN  	;
 P-802           	J-110           	J-111           	8.948       	500         	130         	0           	OPEN  	;
 P-813           	J-97            	J-98            	8.666       	500         	130         	0           	OPEN  	;
 P-816           	J-216           	J-217           	14.451      	300         	130         	0           	OPEN  	;
 P-817           	J-642           	J-567           	52.159      	300         	130         	0           	OPEN  	;
 P-818           	J-567           	J-568           	44.617      	300         	130         	0           	OPEN  	;
 P-824           	J-217           	J-164           	47.632      	300         	130         	0           	OPEN  	;
 P-825           	J-164           	J-131           	11.06       	300         	130         	0           	OPEN  	;
 P-85            	J-78            	J-14            	44.808      	100         	130         	0           	OPEN  	;
 P-86            	J-14            	J-94            	33.784      	125         	130         	0           	OPEN  	;
 P-87            	J-674           	J-58            	57.885      	100         	130         	0           	OPEN  	;
 P-88            	J-342           	J-674           	79.719      	100         	130         	0           	OPEN  	;
 P-89            	J-178           	J-342           	23.269      	100         	130         	0           	OPEN  	;
 P-90            	J-102           	J-382           	26.389      	125         	130         	0           	OPEN  	;
 P-91            	J-382           	J-266           	49.507      	125         	130         	0           	OPEN  	;
 P-92            	J-511           	J-325           	92.421      	125         	130         	0           	OPEN  	;
 P-93            	J-219           	J-662           	56.009      	100         	130         	0           	OPEN  	;
 P-94            	J-14            	J-15            	4.369       	100         	130         	0           	OPEN  	;